# File generated by Flopy version 3.3.6 on 09/15/2023 at 14:03:39.
BEGIN options
  DIGITS  10
  PRINT_INPUT
END options

BEGIN continuous  FILEOUT  heads.csv
    OPEN/CLOSE  'freyberg6.obs_continuous_heads.csv.txt'
END continuous  FILEOUT  heads.csv

