# File generated by Flopy version 3.3.6 on 10/09/2023 at 08:20:51.
BEGIN Options
  TIME_UNITS  days
END Options

BEGIN Dimensions
  NPER  25
END Dimensions

BEGIN PERIODDATA
       1.00000000  1       1.00000000  NSTP TSMULT
       1.00000000  1       1.00000000  NSTP TSMULT
       1.00000000  1       1.00000000  NSTP TSMULT
       1.00000000  1       1.00000000  NSTP TSMULT
       1.00000000  1       1.00000000  NSTP TSMULT
       1.00000000  1       1.00000000  NSTP TSMULT
       1.00000000  1       1.00000000  NSTP TSMULT
       1.00000000  1       1.00000000  NSTP TSMULT
       1.00000000  1       1.00000000  NSTP TSMULT
       1.00000000  1       1.00000000  NSTP TSMULT
       1.00000000  1       1.00000000  NSTP TSMULT
       1.00000000  1       1.00000000  NSTP TSMULT
       1.00000000  1       1.00000000  NSTP TSMULT
       1.00000000  1       1.00000000  NSTP TSMULT
       1.00000000  1       1.00000000  NSTP TSMULT
       1.00000000  1       1.00000000  NSTP TSMULT
       1.00000000  1       1.00000000  NSTP TSMULT
       1.00000000  1       1.00000000  NSTP TSMULT
       1.00000000  1       1.00000000  NSTP TSMULT
       1.00000000  1       1.00000000  NSTP TSMULT
       1.00000000  1       1.00000000  NSTP TSMULT
       1.00000000  1       1.00000000  NSTP TSMULT
       1.00000000  1       1.00000000  NSTP TSMULT
       1.00000000  1       1.00000000  NSTP TSMULT
       1.00000000  1       1.00000000  NSTP TSMULT
END PERIODDATA

