# File generated by Flopy version 3.3.6 on 09/19/2023 at 09:31:07.
BEGIN options
  DIGITS  10
END options

BEGIN continuous  FILEOUT  heads.csv
    OPEN/CLOSE  'freyberg6.obs_continuous_heads.csv.txt'
END continuous  FILEOUT  heads.csv

