# File generated by Flopy version 3.3.6 on 02/29/2024 at 12:26:14.
BEGIN options
  DIGITS  10
END options

BEGIN continuous  FILEOUT  heads.csv
    OPEN/CLOSE  'freyberg6.obs_continuous_heads.csv.txt'
END continuous  FILEOUT  heads.csv

