# File generated by Flopy version 3.3.6 on 09/15/2023 at 14:03:39.
BEGIN Options
  TIME_UNITS  days
END Options

BEGIN Dimensions
  NPER  25
END Dimensions

BEGIN PERIODDATA
       1.00000000  1       1.00000000  NSTP TSMULT
       1.00000000  1       1.00000000  NSTP TSMULT
       1.00000000  1       1.00000000  NSTP TSMULT
       1.00000000  1       1.00000000  NSTP TSMULT
       1.00000000  1       1.00000000  NSTP TSMULT
       1.00000000  1       1.00000000  NSTP TSMULT
       1.00000000  1       1.00000000  NSTP TSMULT
       1.00000000  1       1.00000000  NSTP TSMULT
       1.00000000  1       1.00000000  NSTP TSMULT
       1.00000000  1       1.00000000  NSTP TSMULT
       1.00000000  1       1.00000000  NSTP TSMULT
       1.00000000  1       1.00000000  NSTP TSMULT
       1.00000000  1       1.00000000  NSTP TSMULT
       1.00000000  1       1.00000000  NSTP TSMULT
       1.00000000  1       1.00000000  NSTP TSMULT
       1.00000000  1       1.00000000  NSTP TSMULT
       1.00000000  1       1.00000000  NSTP TSMULT
       1.00000000  1       1.00000000  NSTP TSMULT
       1.00000000  1       1.00000000  NSTP TSMULT
       1.00000000  1       1.00000000  NSTP TSMULT
       1.00000000  1       1.00000000  NSTP TSMULT
       1.00000000  1       1.00000000  NSTP TSMULT
       1.00000000  1       1.00000000  NSTP TSMULT
       1.00000000  1       1.00000000  NSTP TSMULT
       1.00000000  1       1.00000000  NSTP TSMULT
END PERIODDATA

