# File generated by Flopy version 3.3.6 on 11/19/2023 at 22:01:53.
BEGIN Options
  PRINT_INPUT
  PRINT_FLOWS
  SAVE_FLOWS
END Options

BEGIN Dimensions
  MAXBOUND  33
END Dimensions

BEGIN PERIOD  1
    OPEN/CLOSE  'freyberg6.ghb_stress_period_data_1.txt'
END PERIOD  1

