# File generated by Flopy version 3.3.6 on 11/19/2023 at 18:29:28.
BEGIN options
END options

BEGIN continuous  FILEOUT  sfr.csv
    OPEN/CLOSE  'sfr.obs_continuous_sfr.csv.txt'
END continuous  FILEOUT  sfr.csv

